[TITLE]


[JUNCTIONS]
;ID              	Elev        	Demand      	Pattern         
 J1              	190.000000  	0           	PRZ_1           	;
 J2              	190.000000  	0           	PRZ_1           	;
 J3              	430.000000  	500         	PRZ_1           	;
 J4              	340.000000  	0           	PRZ_1           	;
 J5              	340.000000  	0           	PRZ_1           	;
 J6              	310.000000  	1500        	PRZ_2           	;
 J7              	320.000000  	0           	PRZ_2           	;
 J8              	130.000000  	500         	PRZ_2           	;
 J9              	130.000000  	0           	PRZ_2           	;
 J10             	150.000000  	0           	PRZ_2           	;
 J11             	235.000000  	0           	PRZ_2           	;
 J12             	235.000000  	0           	PRZ_2           	;

[RESERVOIRS]
;ID              	Head        	Pattern         
 R1              	200         	                	;

[TANKS]
;ID              	Elevation   	InitLevel   	MinLevel    	MaxLevel    	Diameter    	MinVol      	VolCurve
 T1              	135.0       	25          	5           	99          	10          	0           	    1            	;   CeilingLess TANK
 T2              	435.0       	25          	5           	99          	10          	0           	                	;   CeilingLess TANK

[PIPES]
;ID              	Node1           	Node2           	Length      	Diameter    	Roughness   	MinorLoss   	Status
 PL0             	R1              	J1              	520.883788  	16.000000   	100.000000  	0.000000    	OPEN  	;From Reservoir
 PL1             	J2              	J3              	15800.709502	16.000000   	130.000000  	0.000000    	OPEN  	;
 PL2             	J2              	J11             	15700.092435	10.000000   	130.000000  	0.000000    	OPEN  	;
 PL3             	J3              	J4              	7800.709502 	16.000000   	130.000000  	0.000000    	OPEN  	;
 PL4             	J5              	J6              	21800.709502	16.000000   	130.000000  	0.000000    	OPEN  	;
 PL5             	J7              	J6              	21700.092435	10.000000   	110.000000  	0.000000    	OPEN  	;
 PL6             	J9              	J8              	11700.092435	10.000000   	130.000000  	0.000000    	OPEN  	;
 PL7             	J1              	J10             	23700.092435	10.000000   	130.000000  	0.000000    	OPEN  	;
 PL8             	J12             	J6              	36700.092435	10.000000   	130.000000  	0.000000    	OPEN  	;
 PT2             	T2              	J3              	107.122100  	16.000000   	130.000000  	0.000000    	OPEN  	;To Tank
 PT1             	T1              	J8              	152.883788  	10.000000   	100.000000  	0.000000    	OPEN  	;To Tank

[PUMPS]
;ID              	Node1           	Node2           	Parameters
 PMP1            	J1              	J2              	HEAD PMP1H	; Large Pump
 PMP2            	J8              	J7              	HEAD PMP2H	; Small Pump	

[VALVES]
;ID              	Node1           	Node2           	Diameter    	Type	Setting     	MinorLoss   
 V1              	J4              	J5              	16.000000   	FCV 	830.0       	0.50000     	; 
 V2              	J11             	J12             	10.000000   	FCV 	360.0       	0.50000     	; 
 V3              	J10             	J9              	10.000000   	FCV 	360.0       	0.50000     	; 

[TAGS]

[DEMANDS]
;Junction        	Demand      	Pattern         	Category

[STATUS]
;ID              	Status/Setting

[PATTERNS]
;ID              	Multipliers
;
 PRZ_1           	1.131916    	1.291003    	1.118031    	1.152229    	1.248702    	1.237865    
 PRZ_1           	1.478681    	1.511741    	1.146465    	0.982982    	0.896069    	0.696939    
 PRZ_1           	0.545661    	0.553730    	0.514527    	0.502337    	0.507900    	0.535180    
 PRZ_1           	0.752181    	0.891561    	0.915678    	1.236283    	1.649012    	1.502909    
 PRZ_1           	1.131916    
;
 PRZ_2           	1.250000    	1.560000    	2.290000    	1.700000    	1.750000    	1.870000    
 PRZ_2           	1.190000    	1.080000    	1.020000    	1.020000    	1.160000    	1.130000    
 PRZ_2           	0.870000    	0.810000    	0.610000    	0.460000    	0.300000    	0.150000    
 PRZ_2           	0.290000    	0.360000    	0.550000    	0.730000    	0.840000    	1.010000    
 PRZ_2           	1.250000    
;Maximum Day Demand Multiplier (ADD*1.5)
 MDD             	1.500000    

[CURVES]
;ID              	X-Value     	Y-Value
;PUMP: PUMP: PUMP: PUMP
 PMP1H           	0.000000    	345.100000  
 PMP1H           	400.000000  	328.100000  
 PMP1H           	800.000000  	295.100000  
 PMP1H           	1400.000000 	260.100000  
 PMP1H           	1600.000000 	245.100000  
 PMP1H           	1800.000000 	225.100000  
 PMP1H           	2200.000000 	153.100000  
;PUMP: PUMP: PUMP
 PMP2H           	0.000000    	229.700000  
 PMP2H           	100.000000  	228.700000  
 PMP2H           	325.000000  	193.700000  
 PMP2H           	400.000000  	158.700000  
 PMP2H           	500.000000  	103.700000  
;PUMP: EFFICIENCY: EFFICIENCY
 PMP1E           	800.000000  	0.620000    
 PMP1E           	990.000000  	0.760000    
 PMP1E           	1600.00000  	0.860000    
 PMP1E           	1880.00000  	0.850000    
 PMP1E           	2200.00000  	0.840000    
;PUMP: EFFICIENCY: EFFICIENCY
 PMP2E           	200.000000  	0.620000    
 PMP2E           	300.000000  	0.760000    
 PMP2E           	420.000000  	0.860000    
 PMP2E           	480.000000  	0.850000    
 PMP2E           	500.000000  	0.840000    
;VOLUME: 
 1               	1           	100         
 1               	10          	2500        
 1               	15          	8800        

[CONTROLS]




[RULES]




[ENERGY]
 Global Efficiency  	75
 Global Price       	0
 Demand Charge      	0
 Pump 	PMP1            	Efficiency	PMP1E
 Pump 	PMP2            	Efficiency	PMP2E

[EMITTERS]
;Junction        	Coefficient

[QUALITY]
;Node            	InitQual

[SOURCES]
;Node            	Type        	Quality     	Pattern

[REACTIONS]
;Type     	Pipe/Tank       	Coefficient


[REACTIONS]
 Order Bulk            	1
 Order Tank            	1
 Order Wall            	1
 Global Bulk           	0
 Global Wall           	0
 Limiting Potential    	0
 Roughness Correlation 	0

[MIXING]
;Tank            	Model

[TIMES]
 Duration           	0:00 
 Hydraulic Timestep 	1:00 
 Quality Timestep   	0:05 
 Pattern Timestep   	1:00 
 Pattern Start      	0:00 
 Report Timestep    	1:00 
 Report Start       	0:00 
 Start ClockTime    	12 am
 Statistic          	NONE

[REPORT]
 Status             	No
 Summary            	No
 Page               	0

[OPTIONS]
 Units              	GPM
 Headloss           	H-W
 Specific Gravity   	1.000000
 Viscosity          	1
 Trials             	40
 Accuracy           	0.001
 CHECKFREQ          	2
 MAXCHECK           	10
 DAMPLIMIT          	0.000000
 Unbalanced         	Continue 10
 Pattern            	1
 Demand Multiplier  	1.000000
 Emitter Exponent   	0.500000
 Quality            	None mg/L
 Diffusivity        	1
 Tolerance          	0.001000

[COORDINATES]
;Node            	X-Coord         	Y-Coord
 J1              	1.00            	3.00            
 J2              	1.20            	3.00            
 J3              	3.00            	3.00            
 J4              	3.00            	2.20            
 J5              	3.00            	1.80            
 J6              	3.00            	1.00            
 J7              	1.20            	1.00            
 J8              	1.00            	1.00            
 J9              	1.00            	1.80            
 J10             	1.00            	2.20            
 J11             	1.80            	2.20            
 J12             	2.20            	1.80            
 R1              	0.80            	3.00            
 T1              	0.50            	1.00            
 T2              	3.50            	3.00            

[VERTICES]
;Link            	X-Coord         	Y-Coord

[LABELS]
;X-Coord           Y-Coord          Label & Anchor Node

[BACKDROP]
 DIMENSIONS     	0.35            	0.90            	3.65            	3.10            
 UNITS          	None
 FILE           	
 OFFSET         	0.00            	0.00            

[END]
